IEEE34bus/IEEE34_all_threePhase_no_reg.dss
! Modified IEEE 34 bus Test Feeder
! Modified to be a balanced circuit
! Changes:
! 1. All lines are 3 phase
! 2. Capacitors (regulators) were removed
! 3. All loads are 3 phase


Clear
Set DefaultBaseFrequency=60

New object=circuit.ieee34-1
~ basekv=69 pu=1.05 angle=30 mvasc3=200000  !stiffen up a bit over DSS default

! Substation Transformer  -- Modification: Make source very stiff by defining a tiny leakage Z
New Transformer.SubXF Phases=3 Windings=2 Xhl=0.01    ! normally 8
~ wdg=1 bus=sourcebus conn=Delta kv=69    kva=25000   %r=0.0005   !reduce %r, too
~ wdg=2 bus=800       conn=wye   kv=24.9  kva=25000   %r=0.0005

! import line codes with phase impedance matrices
Redirect        IEEELineCodes.dss   ! revised according to Later test feeder doc

! Lines
New Line.L1     Phases=3 Bus1=800.1.2.3  Bus2=802.1.2.3  LineCode=300  Length=2.58   units=kft
New Line.L2     Phases=3 Bus1=802.1.2.3  Bus2=806.1.2.3  LineCode=300  Length=1.73   units=kft
New Line.L3     Phases=3 Bus1=806.1.2.3  Bus2=808.1.2.3  LineCode=300  Length=32.23  units=kft
New Line.L4     Phases=3 Bus1=808.1.2.3  Bus2=810.1.2.3  LineCode=300  Length=5.804  units=kft
New Line.L5     Phases=3 Bus1=808.1.2.3  Bus2=812.1.2.3  LineCode=300  Length=37.5   units=kft
New Line.L6     Phases=3 Bus1=812.1.2.3  Bus2=814.1.2.3  LineCode=300  Length=29.73  units=kft
New Line.L7     Phases=3 Bus1=814.1.2.3  Bus2=850.1.2.3  LineCode=301  Length=0.01   units=kft
New Line.L8     Phases=3 Bus1=816.1.2.3  Bus2=818.1.2.3  LineCode=301  Length=1.71   units=kft
New Line.L9     Phases=3 Bus1=816.1.2.3  Bus2=824.1.2.3  LineCode=301  Length=10.21  units=kft
New Line.L10    Phases=3 Bus1=818.1.2.3  Bus2=820.1.2.3  LineCode=301  Length=48.15  units=kft
New Line.L11    Phases=3 Bus1=820.1.2.3  Bus2=822.1.2.3  LineCode=301  Length=13.74  units=kft
New Line.L12    Phases=3 Bus1=824.1.2.3  Bus2=826.1.2.3  LineCode=301  Length=3.03   units=kft
New Line.L13    Phases=3 Bus1=824.1.2.3  Bus2=828.1.2.3  LineCode=301  Length=0.84   units=kft
New Line.L14    Phases=3 Bus1=828.1.2.3  Bus2=830.1.2.3  LineCode=301  Length=20.44  units=kft
New Line.L15    Phases=3 Bus1=830.1.2.3  Bus2=854.1.2.3  LineCode=301  Length=0.52   units=kft
New Line.L16    Phases=3 Bus1=832.1.2.3  Bus2=858.1.2.3  LineCode=301  Length=4.9    units=kft
New Line.L17    Phases=3 Bus1=834.1.2.3  Bus2=860.1.2.3  LineCode=301  Length=2.02   units=kft
New Line.L18    Phases=3 Bus1=834.1.2.3  Bus2=842.1.2.3  LineCode=301  Length=0.28   units=kft
New Line.L19    Phases=3 Bus1=836.1.2.3  Bus2=840.1.2.3  LineCode=301  Length=0.86   units=kft
New Line.L20    Phases=3 Bus1=836.1.2.3  Bus2=862.1.2.3  LineCode=301  Length=0.28   units=kft
New Line.L21    Phases=3 Bus1=842.1.2.3  Bus2=844.1.2.3  LineCode=301  Length=1.35   units=kft
New Line.L22    Phases=3 Bus1=844.1.2.3  Bus2=846.1.2.3  LineCode=301  Length=3.64   units=kft
New Line.L23    Phases=3 Bus1=846.1.2.3  Bus2=848.1.2.3  LineCode=301  Length=0.53   units=kft
New Line.L24    Phases=3 Bus1=850.1.2.3  Bus2=816.1.2.3  LineCode=301  Length=0.31   units=kft
New Line.L25    Phases=3 Bus1=852.1.2.3  Bus2=832.1.2.3  LineCode=301  Length=0.01   units=kft
New Line.L26    Phases=3 Bus1=854.1.2.3  Bus2=856.1.2.3  LineCode=301  Length=23.33  units=kft
New Line.L27    Phases=3 Bus1=854.1.2.3  Bus2=852.1.2.3  LineCode=301  Length=36.83  units=kft
New Line.L28    Phases=3 Bus1=858.1.2.3  Bus2=864.1.2.3  LineCode=301  Length=1.62   units=kft
New Line.L29    Phases=3 Bus1=858.1.2.3  Bus2=834.1.2.3  LineCode=301  Length=5.83   units=kft
New Line.L30    Phases=3 Bus1=860.1.2.3  Bus2=836.1.2.3  LineCode=301  Length=2.68   units=kft
New Line.L31    Phases=3 Bus1=862.1.2.3  Bus2=838.1.2.3  LineCode=301  Length=4.86   units=kft
New Line.L32    Phases=3 Bus1=888.1.2.3  Bus2=890.1.2.3  LineCode=300  Length=10.56  units=kft

! 24.9/4.16 kV Transformer
New Transformer.XFM1  Phases=3 Windings=2 Xhl=4.08
~ wdg=1 bus=832  conn=wye  kv=24.9  kva=500  %r=0.95
~ wdg=2 bus=888  conn=Wye  kv=4.16  kva=500  %r=0.95

! LoadShapes
New LoadShape.Residencial npts=24 interval=1
~ mult=[0.175 0.175 0.175 0.175 0.175 0.175 0.200 0.375 0.600 0.600 0.600 0.600 0.375 0.375 0.250 0.325 0.325 0.425 0.925 0.950 1.000 0.775 0.425 0.325]

New LoadShape.Comercial npts=24 interval=1
~ mult=[0.300 0.300 0.325 0.350 0.400 0.450 0.600 0.750 0.900 0.925 0.950 0.925 0.900 0.750 0.675 0.500 0.500 0.500 0.725 0.750 0.600 0.500 0.325 0.325]

New LoadShape.Industrial npts=24 interval=1
~ mult=[0.325 0.325 0.350 0.375 0.375 0.375 0.500 0.750 1.250 1.750 1.750 1.750 1.500 1.000 1.000 0.750 0.550 0.475 0.475 0.475 0.450 0.425 0.350 0.325]

! Spot Loads
New Load.S860      Bus1=860  Phases=3 Conn=Wye  Model=1 kV=24.900 kW=60.0   kVAR=48.0   daily=Residencial vminpu=0.85
New Load.S840      Bus1=840  Phases=3 Conn=Wye  Model=5 kV=24.900 kW=27.0   kVAR=21.0   daily=Comercial   vminpu=0.85
New Load.S844      Bus1=844  Phases=3 Conn=Wye  Model=2 kV=24.900 kW=405.0  kVAR=315.0  daily=Industrial  vminpu=0.85
New Load.S848      Bus1=848  Phases=3 Conn=Wye  Model=1 kV=24.900 kW=60.0   kVAR=48.0   daily=Residencial vminpu=0.85
New Load.S830      Bus1=830  Phases=3 Conn=Wye  Model=2 kV=24.900 kW=45.0   kVAR=20.0   daily=Industrial  vminpu=0.85
New Load.S890      Bus1=890  Phases=3 Conn=Wye  Model=5 kV=4.160  kW=450.0  kVAR=225.0  daily=Industrial  vminpu=0.85

! Distributed Loads
New Load.D802_806  Bus1=802  Phases=3 Conn=Wye  Model=1 kV=24.900 kW=55.0   kVAR=29.0   daily=Residencial vminpu=0.85
New Load.D808_810  Bus1=808  Phases=3 Conn=Wye  Model=1 kV=24.900 kW=16.0   kVAR=8.0    daily=Residencial vminpu=0.85
New Load.D818_820  Bus1=818  Phases=3 Conn=Wye  Model=1 kV=24.900 kW=34.0   kVAR=17.0   daily=Residencial vminpu=0.85
New Load.D820_822  Bus1=820  Phases=3 Conn=Wye  Model=1 kV=24.900 kW=135.0  kVAR=70.0   daily=Comercial   vminpu=0.85
New Load.D816_824  Bus1=816  Phases=3 Conn=Wye  Model=5 kV=24.900 kW=5.0    kVAR=2.0    daily=Residencial vminpu=0.85
New Load.D824_826  Bus1=824  Phases=3 Conn=Wye  Model=5 kV=24.900 kW=40.0   kVAR=20.0   daily=Comercial   vminpu=0.85
New Load.D824_828  Bus1=824  Phases=3 Conn=Wye  Model=1 kV=24.900 kW=4.0    kVAR=2.0    daily=Residencial vminpu=0.85
New Load.D828_830  Bus1=828  Phases=3 Conn=Wye  Model=1 kV=24.900 kW=7.0    kVAR=3.0    daily=Residencial vminpu=0.85
New Load.D854_856  Bus1=854  Phases=3 Conn=Wye  Model=1 kV=24.900 kW=4.0    kVAR=2.0    daily=Residencial vminpu=0.85
New Load.D832_858  Bus1=832  Phases=3 Conn=Wye  Model=2 kV=24.900 kW=15.0   kVAR=7.5    daily=Comercial   vminpu=0.85
New Load.D858_864  Bus1=858  Phases=3 Conn=Wye  Model=1 kV=24.900 kW=2.0    kVAR=1.0    daily=Residencial vminpu=0.85
New Load.D858_834  Bus1=858  Phases=3 Conn=Wye  Model=1 kV=24.900 kW=32.0   kVAR=17.0   daily=Comercial   vminpu=0.85
New Load.D834_860  Bus1=834  Phases=3 Conn=Wye  Model=2 kV=24.900 kW=146.0  kVAR=73.0   daily=Industrial  vminpu=0.85
New Load.D860_836  Bus1=860  Phases=3 Conn=Wye  Model=1 kV=24.900 kW=82.0   kVAR=43.0   daily=Comercial   vminpu=0.85
New Load.D836_840  Bus1=836  Phases=3 Conn=Wye  Model=5 kV=24.900 kW=40.0   kVAR=20.0   daily=Comercial   vminpu=0.85
New Load.D862_838  Bus1=862  Phases=3 Conn=Wye  Model=1 kV=24.900 kW=28.0   kVAR=14.0   daily=Residencial vminpu=0.85
New Load.D842_844  Bus1=842  Phases=3 Conn=Wye  Model=1 kV=24.900 kW=9.0    kVAR=5.0    daily=Residencial vminpu=0.85
New Load.D844_846  Bus1=844  Phases=3 Conn=Wye  Model=1 kV=24.900 kW=45.0   kVAR=23.0   daily=Residencial vminpu=0.85
New Load.D846_848  Bus1=846  Phases=3 Conn=Wye  Model=1 kV=24.900 kW=23.0   kVAR=11.0   daily=Residencial vminpu=0.85

Set VoltageBases = "69,24.9,4.16, .48"
CalcVoltageBases

Solve